/COM,Composite Solid Model SolidModel.1
/COM,Generated with: ACP Version 2021 R1
/COM,Copyright (c) 2005 - 2023 by ANSYS Switzerland GmbH
/COM,Unauthorized use, distribution, or duplication is prohibited.
/COM,Last updated: 2023-Sep-12 16:44:46
/COM,Data in consistent MPA units.
/UNITS,MPA
/NOPR
/PREP7
SHPP, OFF
! Layered linear structural solid 8n element
ET, 185,185
KEYOPT, 185, 3, 1
KEYOPT, 185, 8, 1
! Layered quadratic structural solid 20n element
ET, 186,186
KEYOPT, 186, 3, 1
KEYOPT, 186, 8, 1
! Layered linear structural solid-shell 8n element
ET, 190,190
KEYOPT, 190, 8, 1
! Homogeneous linear structural solid 8n element
ET, 1,185
! Homogeneous quadratic structural solid 20n element
ET, 2,186
NBLOCK,6,SOLID
(3i9,6e16.9)
     1682        0        0   5.2500000e+01   5.0000000e+01   0.0000000e+00
     1683        0        0   5.2500000e+01   5.2500000e+01   0.0000000e+00
     1684        0        0   5.0000000e+01   5.2500000e+01   0.0000000e+00
     1685        0        0   4.9999981e+01   5.0000002e+01   0.0000000e+00
     1686        0        0   5.2500000e+01   5.0000000e+01   1.2700000e-01
     1687        0        0   5.2500000e+01   5.2500000e+01   1.2700000e-01
     1688        0        0   5.0000000e+01   5.2500000e+01   1.2700000e-01
     1689        0        0   4.9999981e+01   5.0000002e+01   1.2700000e-01
     1690        0        0   4.9999981e+01   4.7500002e+01   0.0000000e+00
     1691        0        0   5.2500000e+01   4.7500000e+01   0.0000000e+00
     1692        0        0   4.9999981e+01   4.7500002e+01   1.2700000e-01
     1693        0        0   5.2500000e+01   4.7500000e+01   1.2700000e-01
     1694        0        0   4.7500000e+01   5.2500000e+01   0.0000000e+00
     1695        0        0   4.7499981e+01   5.0000002e+01   0.0000000e+00
     1696        0        0   4.7500000e+01   5.2500000e+01   1.2700000e-01
     1697        0        0   4.7499981e+01   5.0000002e+01   1.2700000e-01
     1698        0        0   4.7499962e+01   4.7500004e+01   0.0000000e+00
     1699        0        0   4.7499962e+01   4.7500004e+01   1.2700000e-01
     1700        0        0   5.0000000e+01   5.5000000e+01   0.0000000e+00
     1701        0        0   4.7500000e+01   5.5000000e+01   0.0000000e+00
! ... 6704 like lines cut
N,R5.3,LOC,     -1,
LOCAL,R5.0,LOC,11,0,51.25,51.25,0.0635
LOCAL,R5.0,ANG,11,0,9.63643e-16,0,-0
LOCAL,R5.0,PRM,11,0,1.0,1.0
CSCIR,11,0,0
CSYS,0
EBLOCK,19,SOLID,     4800
(19i9)
        1      185        0        1       11        0        0        0        8        0     1601     1682     1683     1684     1685     1686     1687     1688     1689
        1      185        0        1       11        0        0        0        8        0     1602     1685     1690     1691     1682     1689     1692     1693     1686
        1      185        0        1       11        0        0        0        8        0     1603     1684     1694     1695     1685     1688     1696     1697     1689
        1      185        0        1       11        0        0        0        8        0     1604     1695     1698     1690     1685     1697     1699     1692     1689
        1      185        0        1       11        0        0        0        8        0     1605     1684     1700     1701     1694     1688     1702     1703     1696
        1      185        0        1       11        0        0        0        8        0     1606     1683     1704     1700     1684     1687     1705     1702     1688
        1      185        0        1       11        0        0        0        8        0     1607     1682     1706     1707     1683     1686     1708     1709     1687
        1      185        0        1       11        0        0        0        8        0     1608     1691     1710     1706     1682     1693     1711     1708     1686
        1      185        0        1       11        0        0        0        8        0     1609     1690     1712     1713     1691     1692     1714     1715     1693
        1      185        0        1       11        0        0        0        8        0     1610     1698     1716     1712     1690     1699     1717     1714     1692
        1      185        0        1       11        0        0        0        8        0     1611     1694     1718     1719     1695     1696     1720     1721     1697
        1      185        0        1       11        0        0        0        8        0     1612     1719     1722     1698     1695     1721     1723     1699     1697
        1      185        0        1       11        0        0        0        8        0     1613     1701     1724     1718     1694     1703     1725     1720     1696
        1      185        0        1       11        0        0        0        8        0     1614     1707     1726     1704     1683     1709     1727     1705     1687
        1      185        0        1       11        0        0        0        8        0     1615     1713     1728     1710     1691     1715     1729     1711     1693
        1      185        0        1       11        0        0        0        8        0     1616     1722     1730     1716     1698     1723     1731     1717     1699
        1      185        0        1       11        0        0        0        8        0     1617     1700     1732     1733     1701     1702     1734     1735     1703
        1      185        0        1       11        0        0        0        8        0     1618     1701     1733     1736     1724     1703     1735     1737     1725
        1      185        0        1       11        0        0        0        8        0     1619     1706     1738     1739     1707     1708     1740     1741     1709
        1      185        0        1       11        0        0        0        8        0     1620     1707     1739     1742     1726     1709     1741     1743     1727
! ... 4781 like lines cut
! Unit system DS_SOLV_MKS
! GUID a4040ddc-5070-4f94-a375-664224417dee
! Material 1 = Epoxy Carbon UD (230 GPa) Prepreg
MP,DENS,1,1490,	! kg m^-3
MP,EX,1,53780000000,	! Pa
MP,EY,1,117930000000,	! Pa
MP,EZ,1,10300000000,	! Pa
MP,PRXY,1,0.25,
MP,PRYZ,1,0.6,
MP,PRXZ,1,0.27,
MP,GXY,1,8620000000,	! Pa
MP,GYZ,1,3000000000,	! Pa
MP,GXZ,1,7000000000,	! Pa

TB,FCLI,1,1,9,2
TBDATA,1,0.0167,-0.0108,0.0032,-0.0192,0.0032,-0.0192
TBDATA,7,0.012,0.011
MP,ALPX,1,-4.7e-07,	! C^-1
MP,ALPY,1,3e-05,	! C^-1
MP,ALPZ,1,3e-05,	! C^-1

TB,FCLI,1,1,20,1
TBDATA,1,2231000000
TBDATA,2,-1082000000
TBDATA,3,29000000
TBDATA,4,-100000000
TBDATA,5,29000000
TBDATA,6,-100000000
TBDATA,7,60000000
TBDATA,8,32000000
TBDATA,9,60000000
TBDATA,10,-1
TBDATA,11,-1
TBDATA,12,-1
TBDATA,13,0.35
TBDATA,14,0.3
TBDATA,15,0.25
TBDATA,16,0.25

SECTYPE,1,SHELL
SECOFFSET,USER,0
SECBLOCK,1
0.127,1,0,3
SECTYPE,2,SHELL
SECOFFSET,USER,0
SECBLOCK,1
1.27,1,90,3
SECTYPE,3,SHELL
SECOFFSET,USER,0
SECBLOCK,1
0.127,1,0,3
CMBLOCK,_ACP_SolidModel.1_1_bot,NODE,     1681  ! users node component definition
(8i10)
      1682      1683      1684      1685      1690      1691      1694      1695
      1698      1700      1701      1704      1706      1707      1710      1712
      1713      1716      1718      1719      1722      1724      1726      1728
      1730      1732      1733      1736      1738      1739      1742      1744
      1745      1748      1749      1752      1754      1755      1758      1759
      1762      1764      1765      1768      1769      1772      1774      1776
      1778      1780      1781      1784      1786      1787      1790      1791
      1794      1795      1798      1800      1801      1804      1805      1808
      1809      1812      1814      1815      1818      1819      1822      1823
      1826      1828      1829      1832      1833      1836      1838      1840
      1842      1844      1845      1848      1849      1852      1853      1856
      1858      1859      1862      1864      1865      1868      1869      1872
      1873      1876      1877      1880      1882      1883      1886      1887
      1890      1891      1894      1895      1898      1900      1901      1904
      1905      1908      1909      1912      1913      1916      1918      1920
      1922      1924      1925      1928      1930      1931      1934      1935
      1938      1939      1942      1943      1946      1947      1950      1952
      1953      1956      1957      1960      1961      1964      1965      1968
      1969      1972      1974      1975      1978      1979      1982      1983
      1986      1987      1990      1991      1994      1996      1997      2000
! ... 191 like lines cut
CMBLOCK,_ACP_SolidModel.1_1_top,NODE,     1681  ! users node component definition
(8i10)
      6725      6726      6727      6728      6729      6730      6731      6732
      6733      6734      6735      6736      6737      6738      6739      6740
      6741      6742      6743      6744      6745      6746      6747      6748
      6749      6750      6751      6752      6753      6754      6755      6756
      6757      6758      6759      6760      6761      6762      6763      6764
      6765      6766      6767      6768      6769      6770      6771      6772
      6773      6774      6775      6776      6777      6778      6779      6780
      6781      6782      6783      6784      6785      6786      6787      6788
      6789      6790      6791      6792      6793      6794      6795      6796
      6797      6798      6799      6800      6801      6802      6803      6804
      6805      6806      6807      6808      6809      6810      6811      6812
      6813      6814      6815      6816      6817      6818      6819      6820
      6821      6822      6823      6824      6825      6826      6827      6828
      6829      6830      6831      6832      6833      6834      6835      6836
      6837      6838      6839      6840      6841      6842      6843      6844
      6845      6846      6847      6848      6849      6850      6851      6852
      6853      6854      6855      6856      6857      6858      6859      6860
      6861      6862      6863      6864      6865      6866      6867      6868
      6869      6870      6871      6872      6873      6874      6875      6876
      6877      6878      6879      6880      6881      6882      6883      6884
! ... 191 like lines cut
CMBLOCK,_ACP_SolidModel.1_1_wall,NODE,      164  ! users node component definition
(8i10)
      4724      4725      4726      4727      4728      4729      4730      4731
      4732      4733      4734      4735      4736      4737      4738      4739
      4740      4741      4742      4743      4744      4745      4746      4747
      4748      4749      4750      4751      4752      4753      4754      4755
      4756      4757      4758      4759      4760      4761      4762      4763
      4764      4765      4766      4767      4768      4769      4770      4771
      4772      4773      4774      4775      4776      4777      4778      4779
      4780      4781      4782      4783      4784      4785      4786      4787
      4788      4789      4790      4791      4792      4793      4794      4795
      4796      4797      4798      4799      4800      4801      4803      4805
      5042      5043      6565      6566      6567      6568      6569      6570
      6571      6572      6573      6574      6575      6576      6577      6578
      6579      6580      6581      6582      6583      6584      6585      6586
      6587      6588      6589      6590      6591      6592      6593      6594
      6595      6596      6597      6598      6599      6600      6601      6602
      6603      6605      6724      8246      8247      8248      8249      8250
      8251      8252      8253      8254      8255      8256      8257      8258
      8259      8260      8261      8262      8263      8264      8265      8266
      8267      8268      8269      8270      8271      8272      8273      8274
      8275      8276      8277      8278      8279      8280      8281      8282
      8283      8284      8286      8405
CMBLOCK,_ACP_SolidModel.1_2_wall,NODE,      164  ! users node component definition
(8i10)
      4962      4963      4964      4965      4966      4967      4968      4969
      4970      4971      4972      4973      4974      4975      4976      4977
      4978      4979      4980      4981      4982      4983      4984      4985
      4986      4987      4988      4989      4990      4991      4992      4993
      4994      4995      4996      4997      4998      4999      5000      5001
      5002      5003      5004      5005      5006      5007      5008      5009
      5010      5011      5012      5013      5014      5015      5016      5017
      5018      5019      5020      5021      5022      5023      5024      5025
      5026      5027      5028      5029      5030      5031      5032      5033
      5034      5035      5036      5037      5038      5039      5040      5041
      5042      5043      6684      6685      6686      6687      6688      6689
      6690      6691      6692      6693      6694      6695      6696      6697
      6698      6699      6700      6701      6702      6703      6704      6705
      6706      6707      6708      6709      6710      6711      6712      6713
      6714      6715      6716      6717      6718      6719      6720      6721
      6722      6723      6724      8365      8366      8367      8368      8369
      8370      8371      8372      8373      8374      8375      8376      8377
      8378      8379      8380      8381      8382      8383      8384      8385
      8386      8387      8388      8389      8390      8391      8392      8393
      8394      8395      8396      8397      8398      8399      8400      8401
      8402      8403      8404      8405
CMBLOCK,_ACP_SolidModel.1_3_wall,NODE,      164  ! users node component definition
(8i10)
      4882      4883      4884      4885      4886      4887      4888      4889
      4890      4891      4892      4893      4894      4895      4896      4897
      4898      4899      4900      4901      4902      4903      4904      4905
      4906      4907      4908      4909      4910      4911      4912      4913
      4914      4915      4916      4917      4918      4919      4920      4921
      4922      4923      4924      4925      4926      4927      4928      4929
      4930      4931      4932      4933      4934      4935      4936      4937
      4938      4939      4940      4941      4942      4943      4944      4945
      4946      4947      4948      4949      4950      4951      4952      4953
      4954      4955      4956      4957      4958      4959      4960      4961
      4963      4965      6644      6645      6646      6647      6648      6649
      6650      6651      6652      6653      6654      6655      6656      6657
      6658      6659      6660      6661      6662      6663      6664      6665
      6666      6667      6668      6669      6670      6671      6672      6673
      6674      6675      6676      6677      6678      6679      6680      6681
      6682      6683      6685      8325      8326      8327      8328      8329
      8330      8331      8332      8333      8334      8335      8336      8337
      8338      8339      8340      8341      8342      8343      8344      8345
      8346      8347      8348      8349      8350      8351      8352      8353
      8354      8355      8356      8357      8358      8359      8360      8361
      8362      8363      8364      8366
CMBLOCK,_ACP_SolidModel.1_4_wall,NODE,      164  ! users node component definition
(8i10)
      4802      4803      4804      4805      4806      4807      4808      4809
      4810      4811      4812      4813      4814      4815      4816      4817
      4818      4819      4820      4821      4822      4823      4824      4825
      4826      4827      4828      4829      4830      4831      4832      4833
      4834      4835      4836      4837      4838      4839      4840      4841
      4842      4843      4844      4845      4846      4847      4848      4849
      4850      4851      4852      4853      4854      4855      4856      4857
      4858      4859      4860      4861      4862      4863      4864      4865
      4866      4867      4868      4869      4870      4871      4872      4873
      4874      4875      4876      4877      4878      4879      4880      4881
      4883      4885      6604      6605      6606      6607      6608      6609
      6610      6611      6612      6613      6614      6615      6616      6617
      6618      6619      6620      6621      6622      6623      6624      6625
      6626      6627      6628      6629      6630      6631      6632      6633
      6634      6635      6636      6637      6638      6639      6640      6641
      6642      6643      6645      8285      8286      8287      8288      8289
      8290      8291      8292      8293      8294      8295      8296      8297
      8298      8299      8300      8301      8302      8303      8304      8305
      8306      8307      8308      8309      8310      8311      8312      8313
      8314      8315      8316      8317      8318      8319      8320      8321
      8322      8323      8324      8326
CMGRP,R5.2,SolidModel.1_All_Elements_bot,_ACP_SolidModel.1_1_bot
CMGRP,R5.2,SolidModel.1_All_Elements_top,_ACP_SolidModel.1_1_top
/GOPR
