/batch
/config,noeldb,1     ! force off writing results to database
*get,_wallstrt,active,,time,wall
! ANSYS input file written by Workbench version 2021 R1
! File used for geometry attach: C:\Users\MonsteR\Documents\Ansys\Example4-3\Example4-3_files\dp0\global\MECH\SYS\AssembledModel\SYS.pmdb
/title,Example4-3--Static Structural (B3)
! ****** Begin Custom Load Command Snippet ******
/COM, ACT Extensions:
/COM,     LSDYNA, 2021.1
/COM,     5f463412-bd3e-484b-87e7-cbc0a665e474, wbex
/COM,
! ****** End   Custom Load Command Snippet ******
*DIM,_wb_ProjectScratch_dir,string,248
_wb_ProjectScratch_dir(1) = 'C:\Users\MonsteR\Documents\Ansys\Example4-3\_ProjectScratch\ScrC81C\'
*DIM,_wb_SolverFiles_dir,string,248
_wb_SolverFiles_dir(1) = 'C:\Users\MonsteR\Documents\Ansys\Example4-3\Example4-3_files\dp0\SYS\MECH\'
*DIM,_wb_userfiles_dir,string,248
_wb_userfiles_dir(1) = 'C:\Users\MonsteR\Documents\Ansys\Example4-3\Example4-3_files\user_files\'
/com,--- Data in consistent NMM units. See Solving Units in the help system for more information.
/units,MPA
/nopr
/wb,file,start              !  signify a WB generated input file
/prep7
! Turn off shape checking because checks already performed inside WB mesher.
! See help system for more information.
SHPP,OFF,,NOWARN
/nolist
etcon,set             ! allow ANSYS to choose best KEYOP's for 180x elements, resets any applicable keyopt to MAPDL defaults
/com,*********** Nodes for the whole assembly ***********
nblock,3,,7396
(1i9,3e20.9e3)
     1682     5.250000000E+01     5.000000000E+01     0.000000000E+00
     1683     5.250000000E+01     5.250000000E+01     0.000000000E+00
     1684     5.000000000E+01     5.250000000E+01     0.000000000E+00
     1685     4.999998100E+01     5.000000200E+01     0.000000000E+00
     1686     5.250000000E+01     5.000000000E+01     1.270000000E-01
     1687     5.250000000E+01     5.250000000E+01     1.270000000E-01
     1688     5.000000000E+01     5.250000000E+01     1.270000000E-01
     1689     4.999998100E+01     5.000000200E+01     1.270000000E-01
     1690     4.999998100E+01     4.750000200E+01     0.000000000E+00
     1691     5.250000000E+01     4.750000000E+01     0.000000000E+00
     1692     4.999998100E+01     4.750000200E+01     1.270000000E-01
     1693     5.250000000E+01     4.750000000E+01     1.270000000E-01
     1694     4.750000000E+01     5.250000000E+01     0.000000000E+00
     1695     4.749998100E+01     5.000000200E+01     0.000000000E+00
     1696     4.750000000E+01     5.250000000E+01     1.270000000E-01
     1697     4.749998100E+01     5.000000200E+01     1.270000000E-01
     1698     4.749996200E+01     4.750000400E+01     0.000000000E+00
     1699     4.749996200E+01     4.750000400E+01     1.270000000E-01
     1700     5.000000000E+01     5.500000000E+01     0.000000000E+00
     1701     4.750000000E+01     5.500000000E+01     0.000000000E+00
! ... 6705 like lines cut
/wb,elem,start            !  set before creation of elements
/com,*********** Elements for Body 1 "SolidModel.1" ***********
et,1,185
keyo,1,3,1          ! set Layer construction
keyo,1,8,1          ! set Layer data storage
eblock,19,solid,,4800
(19i9)
        1        1        1        1        0        0        0        0        8        0     1601     1682     1683     1684     1685     1686     1687     1688     1689
        1        1        1        1        0        0        0        0        8        0     1602     1685     1690     1691     1682     1689     1692     1693     1686
        1        1        1        1        0        0        0        0        8        0     1603     1684     1694     1695     1685     1688     1696     1697     1689
        1        1        1        1        0        0        0        0        8        0     1604     1695     1698     1690     1685     1697     1699     1692     1689
        1        1        1        1        0        0        0        0        8        0     1605     1684     1700     1701     1694     1688     1702     1703     1696
        1        1        1        1        0        0        0        0        8        0     1606     1683     1704     1700     1684     1687     1705     1702     1688
        1        1        1        1        0        0        0        0        8        0     1607     1682     1706     1707     1683     1686     1708     1709     1687
        1        1        1        1        0        0        0        0        8        0     1608     1691     1710     1706     1682     1693     1711     1708     1686
        1        1        1        1        0        0        0        0        8        0     1609     1690     1712     1713     1691     1692     1714     1715     1693
        1        1        1        1        0        0        0        0        8        0     1610     1698     1716     1712     1690     1699     1717     1714     1692
        1        1        1        1        0        0        0        0        8        0     1611     1694     1718     1719     1695     1696     1720     1721     1697
        1        1        1        1        0        0        0        0        8        0     1612     1719     1722     1698     1695     1721     1723     1699     1697
        1        1        1        1        0        0        0        0        8        0     1613     1701     1724     1718     1694     1703     1725     1720     1696
        1        1        1        1        0        0        0        0        8        0     1614     1707     1726     1704     1683     1709     1727     1705     1687
        1        1        1        1        0        0        0        0        8        0     1615     1713     1728     1710     1691     1715     1729     1711     1693
        1        1        1        1        0        0        0        0        8        0     1616     1722     1730     1716     1698     1723     1731     1717     1699
        1        1        1        1        0        0        0        0        8        0     1617     1700     1732     1733     1701     1702     1734     1735     1703
        1        1        1        1        0        0        0        0        8        0     1618     1701     1733     1736     1724     1703     1735     1737     1725
        1        1        1        1        0        0        0        0        8        0     1619     1706     1738     1739     1707     1708     1740     1741     1709
        1        1        1        1        0        0        0        0        8        0     1620     1707     1739     1742     1726     1709     1741     1743     1727
! ... 4781 like lines cut
!Material Id = {CEC46EB8-92A6-4214-B7A0-0C10EB7796CA}
/wb,elem,end               !  done creating elements
/com,*********** Send User Defined Coordinate System(s) ***********
csys,0
toffst,273.15,  ! Temperature offset from absolute zero
/com,*********** Set Reference Temperature ***********
tref,22.
/wb,mat,start              !  starting to send materials
/com,*********** Send Materials ***********
MP,DENS,1,1.49e-09,	! tonne mm^-3
MP,EX,1,53780,	! tonne s^-2 mm^-1
MP,EY,1,117930,	! tonne s^-2 mm^-1
MP,EZ,1,10300,	! tonne s^-2 mm^-1
MP,PRXY,1,0.25,
MP,PRYZ,1,0.6,
MP,PRXZ,1,0.27,
MP,GXY,1,8620,	! tonne s^-2 mm^-1
MP,GYZ,1,3000,	! tonne s^-2 mm^-1
MP,GXZ,1,7000,	! tonne s^-2 mm^-1

TB,FCLI,1,1,9,2
TBDATA,1,0.0167,-0.0108,0.0032,-0.0192,0.0032,-0.0192
TBDATA,7,0.012,0.011
MP,ALPX,1,-4.7e-07,	! C^-1
MP,ALPY,1,3e-05,	! C^-1
MP,ALPZ,1,3e-05,	! C^-1

TB,FCLI,1,1,20,1
TBDATA,1,2231
TBDATA,2,-1082
TBDATA,3,29
TBDATA,4,-100
TBDATA,5,29
TBDATA,6,-100
TBDATA,7,60
TBDATA,8,32
TBDATA,9,60
TBDATA,10,-1
TBDATA,11,-1
TBDATA,12,-1
TBDATA,13,0.35
TBDATA,14,0.3
TBDATA,15,0.25
TBDATA,16,0.25

/wb,mat,end                !  done sending materials

/com,*********** Sending Coordinate Systems for External Layered Section***********
local,12,0,51.2499952309591,51.2500005296709,6.35e-002,9.63643326346279e-016,0.,0.
csys,0

/com,*********** Sending Materials for External Layered Section***********
MP,DENS,2,1.49e-09,	! tonne mm^-3
MP,EX,2,53780,	! tonne s^-2 mm^-1
MP,EY,2,117930,	! tonne s^-2 mm^-1
MP,EZ,2,10300,	! tonne s^-2 mm^-1
MP,PRXY,2,0.25,
MP,PRYZ,2,0.6,
MP,PRXZ,2,0.27,
MP,GXY,2,8620,	! tonne s^-2 mm^-1
MP,GYZ,2,3000,	! tonne s^-2 mm^-1
MP,GXZ,2,7000,	! tonne s^-2 mm^-1

TB,FCLI,2,1,9,2
TBDATA,1,0.0167,-0.0108,0.0032,-0.0192,0.0032,-0.0192
TBDATA,7,0.012,0.011
MP,ALPX,2,-4.7e-07,	! C^-1
MP,ALPY,2,3e-05,	! C^-1
MP,ALPZ,2,3e-05,	! C^-1

TB,FCLI,2,1,20,1
TBDATA,1,2231
TBDATA,2,-1082
TBDATA,3,29
TBDATA,4,-100
TBDATA,5,29
TBDATA,6,-100
TBDATA,7,60
TBDATA,8,32
TBDATA,9,60
TBDATA,10,-1
TBDATA,11,-1
TBDATA,12,-1
TBDATA,13,0.35
TBDATA,14,0.3
TBDATA,15,0.25
TBDATA,16,0.25


/com,*********** Send External Layered Section Properties ***********
CMBLOCK,_CM_EXT_SEC_0,ELEM,     1600
(8i10)
      1601      1602      1603      1604      1605      1606      1607      1608
      1609      1610      1611      1612      1613      1614      1615      1616
      1617      1618      1619      1620      1621      1622      1623      1624
      1625      1626      1627      1628      1629      1630      1631      1632
      1633      1634      1635      1636      1637      1638      1639      1640
      1641      1642      1643      1644      1645      1646      1647      1648
      1649      1650      1651      1652      1653      1654      1655      1656
      1657      1658      1659      1660      1661      1662      1663      1664
      1665      1666      1667      1668      1669      1670      1671      1672
      1673      1674      1675      1676      1677      1678      1679      1680
      1681      1682      1683      1684      1685      1686      1687      1688
      1689      1690      1691      1692      1693      1694      1695      1696
      1697      1698      1699      1700      1701      1702      1703      1704
      1705      1706      1707      1708      1709      1710      1711      1712
      1713      1714      1715      1716      1717      1718      1719      1720
      1721      1722      1723      1724      1725      1726      1727      1728
      1729      1730      1731      1732      1733      1734      1735      1736
      1737      1738      1739      1740      1741      1742      1743      1744
      1745      1746      1747      1748      1749      1750      1751      1752
      1753      1754      1755      1756      1757      1758      1759      1760
! ... 180 like lines cut

sectype,3,shell
secdata,0.127,2,0
secoff,mid
emod,_cm_ext_sec_0,secnum,3
emod,1601,esys,12
emod,1602,esys,12
emod,1603,esys,12
emod,1604,esys,12
emod,1605,esys,12
emod,1606,esys,12
emod,1607,esys,12
emod,1608,esys,12
emod,1609,esys,12
emod,1610,esys,12
emod,1611,esys,12
emod,1612,esys,12
emod,1613,esys,12
emod,1614,esys,12
emod,1615,esys,12
emod,1616,esys,12
emod,1617,esys,12
emod,1618,esys,12
emod,1619,esys,12
emod,1620,esys,12
! ... 1580 like lines cut

CMBLOCK,_CM_EXT_SEC_1,ELEM,     1600
(8i10)
      3201      3202      3203      3204      3205      3206      3207      3208
      3209      3210      3211      3212      3213      3214      3215      3216
      3217      3218      3219      3220      3221      3222      3223      3224
      3225      3226      3227      3228      3229      3230      3231      3232
      3233      3234      3235      3236      3237      3238      3239      3240
      3241      3242      3243      3244      3245      3246      3247      3248
      3249      3250      3251      3252      3253      3254      3255      3256
      3257      3258      3259      3260      3261      3262      3263      3264
      3265      3266      3267      3268      3269      3270      3271      3272
      3273      3274      3275      3276      3277      3278      3279      3280
      3281      3282      3283      3284      3285      3286      3287      3288
      3289      3290      3291      3292      3293      3294      3295      3296
      3297      3298      3299      3300      3301      3302      3303      3304
      3305      3306      3307      3308      3309      3310      3311      3312
      3313      3314      3315      3316      3317      3318      3319      3320
      3321      3322      3323      3324      3325      3326      3327      3328
      3329      3330      3331      3332      3333      3334      3335      3336
      3337      3338      3339      3340      3341      3342      3343      3344
      3345      3346      3347      3348      3349      3350      3351      3352
      3353      3354      3355      3356      3357      3358      3359      3360
! ... 180 like lines cut

sectype,4,shell
secdata,1.27,2,90
secoff,mid
emod,_cm_ext_sec_1,secnum,4
emod,3201,esys,12
emod,3202,esys,12
emod,3203,esys,12
emod,3204,esys,12
emod,3205,esys,12
emod,3206,esys,12
emod,3207,esys,12
emod,3208,esys,12
emod,3209,esys,12
emod,3210,esys,12
emod,3211,esys,12
emod,3212,esys,12
emod,3213,esys,12
emod,3214,esys,12
emod,3215,esys,12
emod,3216,esys,12
emod,3217,esys,12
emod,3218,esys,12
emod,3219,esys,12
emod,3220,esys,12
! ... 1580 like lines cut

CMBLOCK,_CM_EXT_SEC_2,ELEM,     1600
(8i10)
      4801      4802      4803      4804      4805      4806      4807      4808
      4809      4810      4811      4812      4813      4814      4815      4816
      4817      4818      4819      4820      4821      4822      4823      4824
      4825      4826      4827      4828      4829      4830      4831      4832
      4833      4834      4835      4836      4837      4838      4839      4840
      4841      4842      4843      4844      4845      4846      4847      4848
      4849      4850      4851      4852      4853      4854      4855      4856
      4857      4858      4859      4860      4861      4862      4863      4864
      4865      4866      4867      4868      4869      4870      4871      4872
      4873      4874      4875      4876      4877      4878      4879      4880
      4881      4882      4883      4884      4885      4886      4887      4888
      4889      4890      4891      4892      4893      4894      4895      4896
      4897      4898      4899      4900      4901      4902      4903      4904
      4905      4906      4907      4908      4909      4910      4911      4912
      4913      4914      4915      4916      4917      4918      4919      4920
      4921      4922      4923      4924      4925      4926      4927      4928
      4929      4930      4931      4932      4933      4934      4935      4936
      4937      4938      4939      4940      4941      4942      4943      4944
      4945      4946      4947      4948      4949      4950      4951      4952
      4953      4954      4955      4956      4957      4958      4959      4960
! ... 180 like lines cut

sectype,5,shell
secdata,0.127,2,0
secoff,mid
emod,_cm_ext_sec_2,secnum,5
emod,4801,esys,12
emod,4802,esys,12
emod,4803,esys,12
emod,4804,esys,12
emod,4805,esys,12
emod,4806,esys,12
emod,4807,esys,12
emod,4808,esys,12
emod,4809,esys,12
emod,4810,esys,12
emod,4811,esys,12
emod,4812,esys,12
emod,4813,esys,12
emod,4814,esys,12
emod,4815,esys,12
emod,4816,esys,12
emod,4817,esys,12
emod,4818,esys,12
emod,4819,esys,12
emod,4820,esys,12
! ... 1580 like lines cut

!************************* Model Summary ********************
!SolidModel.1,	Epoxy Carbon UD (230 GPa) Prepreg,	matid,	1
!************************* End Model Summary ********************
! get the diagonal of the bounding box. Needed later for other things
*get,_xmin,node,,mnloc,x
*get,_ymin,node,,mnloc,y
*get,_zmin,node,,mnloc,z
*get,_xmax,node,,mxloc,x
*get,_ymax,node,,mxloc,y
*get,_zmax,node,,mxloc,z
_ASMDIAG=(_xmax-_xmin)*(_xmax-_xmin)+(_ymax-_ymin)*(_ymax-_ymin)+(_zmax-_zmin)*(_zmax-_zmin)
_ASMDIAG=SQRT(_ASMDIAG)
/wb,contact,start          !  starting to send contact
/wb,contact,end            !  done creating contacts
CMBLOCK,CENTER  ,NODE,        4
(8i10)
      1685      1689      5047      6728
CMBLOCK,EDGES   ,NODE,      640
(8i10)
      4724      4725      4726      4727      4728      4729      4730      4731
      4732      4733      4734      4735      4736      4737      4738      4739
      4740      4741      4742      4743      4744      4745      4746      4747
      4748      4749      4750      4751      4752      4753      4754      4755
      4756      4757      4758      4759      4760      4761      4762      4763
      4764      4765      4766      4767      4768      4769      4770      4771
      4772      4773      4774      4775      4776      4777      4778      4779
      4780      4781      4782      4783      4784      4785      4786      4787
      4788      4789      4790      4791      4792      4793      4794      4795
      4796      4797      4798      4799      4800      4801      4802      4803
      4804      4805      4806      4807      4808      4809      4810      4811
      4812      4813      4814      4815      4816      4817      4818      4819
      4820      4821      4822      4823      4824      4825      4826      4827
      4828      4829      4830      4831      4832      4833      4834      4835
      4836      4837      4838      4839      4840      4841      4842      4843
      4844      4845      4846      4847      4848      4849      4850      4851
      4852      4853      4854      4855      4856      4857      4858      4859
      4860      4861      4862      4863      4864      4865      4866      4867
      4868      4869      4870      4871      4872      4873      4874      4875
      4876      4877      4878      4879      4880      4881      4882      4883
! ... 60 like lines cut

CMBLOCK,X_HOLD  ,NODE,        8
(8i10)
      4842      4843      5002      5003      6624      6704      8305      8385

/golist
/wb,load,start             !  starting to send loads
/com,*********** Define Force Using Surface Effect Elements ***********
local,13,0,0.,0.,0.,0.,0.,0.
csys,0
et,7,154
eblock,10,,,120
(15i9)
    10081        7        7        7       13     4802     4803     4805     4804
    10082        7        7        7       13     4806     4802     4804     4807
    10083        7        7        7       13     4808     4806     4807     4809
    10084        7        7        7       13     4810     4808     4809     4811
    10085        7        7        7       13     4812     4810     4811     4813
    10086        7        7        7       13     4814     4812     4813     4815
    10087        7        7        7       13     4816     4814     4815     4817
    10088        7        7        7       13     4818     4816     4817     4819
    10089        7        7        7       13     4820     4818     4819     4821
    10090        7        7        7       13     4822     4820     4821     4823
    10091        7        7        7       13     4824     4822     4823     4825
    10092        7        7        7       13     4826     4824     4825     4827
    10093        7        7        7       13     4828     4826     4827     4829
    10094        7        7        7       13     4830     4828     4829     4831
    10095        7        7        7       13     4832     4830     4831     4833
    10096        7        7        7       13     4834     4832     4833     4835
    10097        7        7        7       13     4836     4834     4835     4837
    10098        7        7        7       13     4838     4836     4837     4839
    10099        7        7        7       13     4840     4838     4839     4841
    10100        7        7        7       13     4842     4840     4841     4843
! ... 101 like lines cut
esel,s,type,,7
keyop,7,2,1                ! Apply load in local coordinate system
keyop,7,7,1                ! Use original area so load is constant in large deformation
esel,all
/com,*********** Define Force Using Surface Effect Elements ***********
local,14,0,0.,0.,0.,0.,0.,0.
csys,0
et,8,154
eblock,10,,,120
(15i9)
    10201        8        8        8       14     4962     4963     4965     4964
    10202        8        8        8       14     4966     4962     4964     4967
    10203        8        8        8       14     4968     4966     4967     4969
    10204        8        8        8       14     4970     4968     4969     4971
    10205        8        8        8       14     4972     4970     4971     4973
    10206        8        8        8       14     4974     4972     4973     4975
    10207        8        8        8       14     4976     4974     4975     4977
    10208        8        8        8       14     4978     4976     4977     4979
    10209        8        8        8       14     4980     4978     4979     4981
    10210        8        8        8       14     4982     4980     4981     4983
    10211        8        8        8       14     4984     4982     4983     4985
    10212        8        8        8       14     4986     4984     4985     4987
    10213        8        8        8       14     4988     4986     4987     4989
    10214        8        8        8       14     4990     4988     4989     4991
    10215        8        8        8       14     4992     4990     4991     4993
    10216        8        8        8       14     4994     4992     4993     4995
    10217        8        8        8       14     4996     4994     4995     4997
    10218        8        8        8       14     4998     4996     4997     4999
    10219        8        8        8       14     5000     4998     4999     5001
    10220        8        8        8       14     5002     5000     5001     5003
! ... 101 like lines cut
esel,s,type,,8
keyop,8,2,1                ! Apply load in local coordinate system
keyop,8,7,1                ! Use original area so load is constant in large deformation
esel,all
/com,*********** Create Direct FE , Displacements ****
CMBLOCK,_CM48U  ,NODE,        4
(8i10)
      1685      1689      5047      6728
/com,*********** Create Direct FE , Displacements ****
CMBLOCK,_CM283U ,NODE,        8
(8i10)
      4842      4843      5002      5003      6624      6704      8305      8385

/com,*********** Create Direct FE , Displacements ****
CMBLOCK,_CM285U ,NODE,      640
(8i10)
      4724      4725      4726      4727      4728      4729      4730      4731
      4732      4733      4734      4735      4736      4737      4738      4739
      4740      4741      4742      4743      4744      4745      4746      4747
      4748      4749      4750      4751      4752      4753      4754      4755
      4756      4757      4758      4759      4760      4761      4762      4763
      4764      4765      4766      4767      4768      4769      4770      4771
      4772      4773      4774      4775      4776      4777      4778      4779
      4780      4781      4782      4783      4784      4785      4786      4787
      4788      4789      4790      4791      4792      4793      4794      4795
      4796      4797      4798      4799      4800      4801      4802      4803
      4804      4805      4806      4807      4808      4809      4810      4811
      4812      4813      4814      4815      4816      4817      4818      4819
      4820      4821      4822      4823      4824      4825      4826      4827
      4828      4829      4830      4831      4832      4833      4834      4835
      4836      4837      4838      4839      4840      4841      4842      4843
      4844      4845      4846      4847      4848      4849      4850      4851
      4852      4853      4854      4855      4856      4857      4858      4859
      4860      4861      4862      4863      4864      4865      4866      4867
      4868      4869      4870      4871      4872      4873      4874      4875
      4876      4877      4878      4879      4880      4881      4882      4883
! ... 60 like lines cut

/gst,on,on
fini
*get,_numnode,node,0,count
*get,_numelem,elem,0,count
*get, _MAXELEMNUM, elem, 0, NUM, MAX
*get, _MAXNODENUM, node, 0, NUM, MAX
*get, _MAXELEMTYPE, etyp, 0, NUM, MAX
*get, _MAXREALCONST, real, 0, NUM, MAX
/go
/wb,load,end               !  done creating loads
/com,--- Number of total nodes = %_numnode%
/com,--- Number of contact elements = 240
/com,--- Number of spring elements = 0
/com,--- Number of bearing elements = 0
/com,--- Number of solid elements = 4800
/com,--- Number of condensed parts = 0
/com,--- Number of total elements = %_numelem%
*get,_wallbsol,active,,time,wall
/com,****************************************************************************
/com,*************************    SOLUTION       ********************************
/com,****************************************************************************
/solu
antype,0                   ! static analysis
_thickRatio=  1     ! Ratio of thick parts in the model
eqsl,pcg,1e-8,,,,,,1
cntr,print,1               ! print out contact info and also make no initial contact an error
nldiag,cont,iter           ! print out contact info each equilibrium iteration
rescontrol,,none                 ! Do not keep any restart files
/com,****************************************************
/com,******************* SOLVE FOR LS 1 OF 1 ****************
esel,s,type,,7
nsle
sfe,all,1,pres,1,65.6167979002622
sfe,all,2,pres,1,0.
sfe,all,3,pres,1,0.
esel,s,type,,8
nsle
sfe,all,1,pres,1,-65.6167979002622
sfe,all,2,pres,1,0.
sfe,all,3,pres,1,0.
nsel,all
esel,all
/com,**** Set Direct FE , Displacements ****
d,_CM48U,ux,0.
d,_CM48U,uy,0.
d,_CM48U,uz,0.
/com,**** Set Direct FE , Displacements ****
d,_CM283U,uy,0.
d,_CM283U,uz,0.
/com,**** Set Direct FE , Displacements ****
d,_CM285U,uz,0.
/nopr
/gopr
/nolist
nsub,1,1,1
time,1.
outres,erase
outres,all,none
outres,nsol,all,
outres,rsol,all
outres,eangl,all
outres,etmp,all
outres,veng,all
outres,strs,all,
outres,epel,all,
outres,eppl,all,
outres,cont,all,
! *********** WB SOLVE COMMAND ***********
! check interactive state
*get,ANSINTER_,active,,int
*if,ANSINTER_,ne,0,then
/eof
*endif
solve
/com *************** Write FE CONNECTORS ********* 
CEWRITE,file,ce,,INTE
/com,****************************************************
/com,*************** FINISHED SOLVE FOR LS 1 *************
*get,_wallasol,active,,time,wall
/nopr
*get,_numnode,node,0,count
*get,_numelem,elem,0,count
*get, _MAXELEMNUM, elem, 0, NUM, MAX
*get, _MAXNODENUM, node, 0, NUM, MAX,,,INTERNAL
*get, _MAXELEMTYPE, etyp, 0, NUM, MAX
*get, _MAXREALCONST, real, 0, NUM, MAX
/gopr
*get,_PCGITER,active,,solu,cgiter
/post1
xmlo,ENCODING,ISO-8859-1
xmlo,parm
/xml,parm,xml
fini
/gopr
*get,_walldone,active,,time,wall
_preptime=(_wallbsol-_wallstrt)*3600
_solvtime=(_wallasol-_wallbsol)*3600
_posttime=(_walldone-_wallasol)*3600
_totaltim=(_walldone-_wallstrt)*3600
*get,_dlbratio,active,0,solu,dlbr
*get,_combtime,active,0,solu,comb
/com,--- Total number of nodes = %_numnode%
/com,--- Total number of elements = %_numelem%
/com,--- Element load balance ratio = %_dlbratio%
/com,--- Time to combine distributed files = %_combtime%
/wb,file,end               ! done with WB generated input
